57
Lattice="16.604053273742842 0.0 0.0 -9.346684432e-07 21.382715795237427 0.0 -1.2956390984e-06 -1.2956390984e-06 29.640759582359657" Properties=species:S:1:pos:R:3 pbc="T T T"
Cu       8.32760729      10.68604725      14.81234825
N        8.32760729      12.01753125      16.33260736
N        8.27386706      12.18263825      13.47181468
N        8.31575310       9.34977025      13.29862256
N        8.39214154       9.19453625      16.14971843
C        8.36742708      11.75806125      17.68789733
C        8.37954007      12.99596825      18.43297083
C        8.34053400      14.00720325      17.51764062
C        8.31071649      13.39024625      16.21564082
C        8.27649504      14.09588425      15.01918562
C        8.25876870      13.53270825      13.74949290
C        8.22028286      14.29710825      12.52843239
C        8.21094794      13.40033525      11.50094639
C        8.24444484      12.08296425      12.09552701
C        8.24614410      10.89170425      11.36136598
C        8.27998169       9.61892125      11.94447810
C        8.27871800       8.38707425      11.19129392
C        8.31054471       7.36741225      12.09776410
C        8.33511302       7.97267625      13.40714990
C        8.37040681       7.25157425      14.60392085
C        8.39383190       7.84260825      15.87457053
C        8.42359096       7.08336525      17.10180228
C        8.43595161       7.98351125      18.12425723
C        8.41966835       9.29747725      17.52747795
C        8.41078662      10.48594625      18.26888788
C        8.21206589      11.00569725       9.87048923
C        9.40428186      11.09672425       9.13718739
C        6.98903627      11.07679525       9.18728368
C        9.37465388      11.27084025       7.75142072
C        6.95886102      11.24979525       7.80124051
C        8.15160768      11.35311025       7.08070172
C        8.44907012      10.37425625      19.75784675
C        9.63855426      10.02065525      20.41365299
C        7.29294937      10.58849125      20.52379867
C        9.67091064       9.88053225      21.80266391
C        7.32407291      10.44403125      21.91297307
C        8.51267337      10.08883425      22.55618540
H        8.26234892       6.31071325      14.14283606
H        8.41857576      13.06618025      19.51545309
H        8.33752824      15.07968325      17.69430145
H        8.26236874      15.18422625      15.08227903
H        8.20211487      15.38271525      12.47823349
H        8.18389406      13.59770425      10.43397508
H        8.25564538       8.32552125      10.10751116
H        8.31631319       6.29737525      11.91203401
H        8.42791497       5.99999925      17.16265401
H        8.44926971       7.78508625      19.19083477
H       10.35800840      11.04270825       9.66467862
H        6.05839848      11.00759625       9.75291018
H       10.31043981      11.35060825       7.19595239
H        5.99999919      11.31191925       7.28416378
H        8.12819231      11.50039725       6.00000000
H       10.54043243       9.85317425      19.82259334
H        6.36245721      10.85489525      20.01966902
H       10.60405188       9.60522725      22.29665836
H        6.41402221      10.60211225      22.49383448
H        8.53620039       9.97322625      23.64075958
